cypress/fixtures/run-export/20220128_1630_155_Initial_CSE1_Transit_CSE.uct
##C 2007.05.01
Generated by Convergence, RTE's network analysis tool (2022.01.28 03:42)
Informations      : 20220128_1630_155_Initial_CSE1.uct
Date of situation : 2022/01/28 16:30
##N
##ZME
0ANDRI51 Andrijevica  0 0        0.34404 0.00000 0.00000 0.00000 
0BAR  51 Bar          0 0        32.9761 3.48043 0.00000 0.00000 
0BERAN51 Berane       0 0        12.5524 1.45717 0.00000 0.00000 
0BREZN51 Brezna       0 0        0.78192 0.00000 0.00000 0.00000 
0BUDVA51 Budva        0 0        36.6667 2.83047 0.00000 0.00000 
0CETIN51 Cetinje      0 0        11.0094 1.45717 0.00000 0.00000 
0DANIL51 Danilovgrad  0 0        10.2692 3.14497 0.00000 0.00000 
0ETREB51 EVP Trebjesi 0 0        1.68070 0.76000 0.00000 0.00000 
0HNOVI51 Herceg Novi  0 0        29.1394 2.54742 0.00000 0.00000 
0HPERU21 HE Perucica  0 0        0.00000 0.00000 0.00000 0.00000 
0HPERU51 HE Perucica  0 2 116.00 0.00000 0.00000 -157.00 10.4447 5.00000 -210.00 12.0000 -75.000 
0HPERU52 HE Perucica  0 2 116.00 0.00000 0.00000 -71.000 6.00000 2.00000 -96.000 6.00000 -39.000 
0HPIVA21 HE Piva      0 2 239.05 0.00000 0.00000 -74.000 4.00000 -70.000 -114.00 4.00000 -37.000 
0HPIVA22 HE Piva      0 2 239.05 0.00000 0.00000 -146.00 8.00000 -140.00 -228.00 8.00000 -74.000 
0KAP  51 KAP          0 0        8.36374 17.4300 0.00000 0.00000 
0KAP  5T KAP T-spoj   0 0        0.00000 0.00000 0.00000 0.00000 
0KOTOR51 Kotor        0 0        17.9528 2.01278 0.00000 0.00000 
0KRNOV51 VE Krnovo    0 2 117.37 0.00000 1.02000 -36.877 0.00000 0.00000 -72.000 0.00000 -34.000 
0LASTV11 Lastva       0 0        0.00000 0.00000 0.00000 0.00000 
0LASTV51 Lastva       0 0        0.62553 0.06290 0.00000 0.00000 
0MOJKO21 Mojkovac     0 0        0.00000 0.00000 0.00000 0.00000 
0MOJKO51 Mojkovac     0 0        5.39002 0.66044 0.00000 0.00000 
0MOZUR51 VE Mozura    0 2 108.00 0.00000 15.0000 -3.3560 0.00000 0.00000 -48.000 0.00000 -15.000 
0NIKS251 Niksic 2 - K 0 0        10.3318 1.89746 0.00000 0.00000 
0NIKSI51 Niksic 1     0 0        27.6486 5.33596 0.00000 0.00000 
0NIKSZ52 Niksic Zelje 0 0        0.42763 0.58000 0.00000 0.00000 
0PLJE211 Pljevlja 2   0 0        0.00000 0.00000 0.00000 0.00000 
0PLJE251 Pljevlja 2   0 0        0.00000 0.00000 0.00000 0.00000 
0PLJEV51 Pljevlja 1   0 0        22.4463 5.56659 0.00000 0.00000 
0PODG121 Podgorica 1  0 0        0.00000 0.00000 0.00000 0.00000 
0PODG151 Podgorica 1  0 0        44.0376 6.16414 0.00000 0.00000 
0PODG211 Podgorica 2  0 0        0.00000 0.00000 0.00000 0.00000 
0PODG212 Podgorica 2  0 0        0.00000 0.00000 0.00000 0.00000 
0PODG251 Podgorica 2  0 0        0.00000 0.00000 0.00000 0.00000 
0PODG252 Podgorica 2  0 0        0.00000 0.00000 0.00000 0.00000 
0PODG351 Podgorica 3  0 0        38.7622 2.76757 0.00000 0.00000 
0PODG451 Podgorica 4  0 0        53.2747 3.41753 0.00000 0.00000 
0PODG551 Podgorica 5  0 0        32.9552 3.02965 0.00000 0.00000 
0RIBAR11 Ribarevine   0 0        0.00000 0.00000 0.00000 0.00000 
0RIBAR51 Ribarevine   0 0        15.2004 3.26028 0.00000 0.00000 
0ROZAJ51 Rozaje       0 0        0.00000 0.00000 0.00000 0.00000 
0TIVAT51 Tivat        0 0        23.0822 2.06520 0.00000 0.00000 
0TPLJE21 TE Pljevlja  0 2 237.00 1.34257 10.4200 -207.05 10.0000 -160.00 -225.00 10.0000 -109.00 
0ULCIN51 Ulcinj       0 0        15.3464 1.24750 0.00000 0.00000 
0VILUS51 Vilusi       0 0        1.04255 0.39836 0.00000 0.00000 
0VILUS5K Vilusi KT    0 0        0.00000 0.00000 0.00000 0.00000 
0VIRPA51 Virpazar     0 0        4.49342 1.00639 0.00000 0.00000 
0VRANI5K Vranici KT   0 0        0.00000 0.00000 0.00000 0.00000 
##ZAL
AAES  5  AES          0 0        28.9132 0.00000 0.00000 0.00000 
AARSTI5  HPP ARSTI    0 0        0.00000 0.00000 0.00000 0.00000 0.00000 -100.00 100.000 -100.00 
AASHT15  HPP ASHTA 1  0 2 115.00 0.00000 0.00000 -48.384 -90.425 0.00000 -50.000 5.00000 -100.46 
AASHT25  HPP ASHTA 2  0 0        0.00000 0.00000 0.00000 0.00000 0.00000 -50.000 5.00000 -10.000 
ABABIC2  BABIC        0 0        0.00000 0.00000 0.00000 0.00000 
ABABIC5  BABIC        0 0        10.1196 5.56730 0.00000 0.00000 
ABALSH5  BALSH        0 0        21.6850 2.78365 0.00000 0.00000 
ABANJE5  HPP BANJE    0 2 115.00 1.44566 0.00000 -66.036 -35.853 0.00000 -70.000 5.00000 -37.619 
ABCURR5  B CURRI      0 0        5.78265 2.78365 0.00000 0.00000 
ABELE 5  HPP BELE     0 2 115.00 0.00000 0.00000 -8.3879 0.32075 0.00000 -16.000 5.00000 -10.000 
ABELSH5  BELSH        0 0        12.7992 0.00000 0.00000 0.00000 
ABERAT5  BERAT        0 0        10.4590 0.00000 0.00000 0.00000 
ABISHN5  HPP Bishnice 0 2 115.00 0.00000 0.00000 -3.0804 1.52833 0.00000 -8.0000 5.00000 -10.000 
ABISTR3  BISTRRIC     0 0        0.00000 0.00000 0.00000 0.00000 
ABISTR5  HPP BISTRIC  0 2 115.00 4.33698 0.00000 -21.023 -30.225 0.00000 -27.000 5.00000 -30.225 
ABULQI5  BULQIZ       0 0        2.89132 1.39182 0.00000 0.00000 
ABURRE2  BURREL       0 0        0.00000 0.00000 0.00000 0.00000 
ABURRL5  BURREL       0 0        27.7341 5.56730 0.00000 0.00000 
ABUSHA5  BUSHAT       0 0        2.89138 0.00000 0.00000 0.00000 
ACEMER5  HPP Cemerica 0 2 115.00 0.00000 0.00000 -5.0377 14.5512 0.00000 -12.000 14.5512 -10.000 
ACERIK5  CERRIK       0 0        10.3315 1.39182 0.00000 0.00000 
ACERRU5  HPP CERRU    0 2 115.00 0.00000 0.00000 -7.5290 3.70607 0.00000 -70.000 5.00000 -10.000 
ACOROV5  COROVODE     0 0        0.00000 0.00000 0.00000 0.00000 
ADARDA5  HPP DARDHA   0 2 115.00 0.00000 0.00000 -6.1664 -10.685 0.00000 -8.0000 5.00000 -10.885 
ADARSI5  HPP Darsi    0 2 115.00 0.00000 0.00000 -1.3084 -17.706 0.00000 -8.0000 5.00000 -18.582 
ADEGSK5  DEG SK       0 0        0.00000 0.00000 0.00000 0.00000 
ADENAS5  HPP DENAS    0 0        0.00000 0.00000 0.00000 0.00000 0.00000 -8.0000 5.00000 -10.000 
ADGSHU5  DEG SHU      0 0        0.00000 0.00000 0.00000 0.00000 
ADRAGO5  HPP DRAGBI   0 0        0.00000 0.00000 0.00000 0.00000 0.00000 -8.0000 5.00000 -10.000 
ADRENO5  DRENOVE      0 0        1.44566 0.00000 0.00000 0.00000 
ADSHK25  DEG SHK      0 0        0.00000 0.00000 0.00000 0.00000 
AEGNAT5  HPP EGNATIA  0 0        0.00000 0.00000 0.00000 0.00000 0.00000 -8.0000 5.00000 -10.000 
AELBS12  ELBASAN 1    0 0        0.00000 0.00000 0.00000 0.00000 
AELBS15  ELBASAN 1    0 0        7.97767 2.78365 0.00000 0.00000 
AELBS21  ELBASAN 2    0 0        0.00000 0.00000 0.00000 0.00000 
AELBS22  ELBASAN 2    0 0        0.00000 0.00000 0.00000 0.00000 
AELKOM5  ELKOM        0 0        14.4566 6.95912 0.00000 0.00000 
AELKUR2  ELKURUM      0 0        10.1196 0.00000 0.00000 0.00000 
AERSEK5  ERSEK        0 0        13.0076 0.00000 0.00000 0.00000 
AFANG 2  HPP FANG     0 2 225.00 0.00000 0.00000 -60.010 -5.1102 0.00000 -70.000 5.00000 -17.000 
AFARKA5  FARKA        0 0        32.3572 1.39182 0.00000 0.00000 
AFARRZ5  FUSH ARREZ   0 0        4.33698 1.39182 0.00000 0.00000 
AFIBER5  FIBER        0 0        7.22830 6.95912 0.00000 0.00000 
AFIER 2  FIER 220     0 0        36.9947 0.00000 0.00000 0.00000 
AFIER 5  FIER         0 0        46.2612 -59.848 0.00000 0.00000 
AFIERZ2  HPP FIERZA   0 2 225.00 0.00000 0.00000 -355.00 60.8137 0.00000 -500.00 137.968 -240.00 
AFIERZ5  FIERZ        0 0        0.00000 0.00000 0.00000 0.00000 
AFKCIM2  FKRUJE       0 0        18.7936 1.39182 0.00000 0.00000 
AFKRUJ5  FUSH KRUJE   0 0        28.3360 2.78365 0.00000 0.00000 
AFKUQE5  FUSH KUQ     0 0        21.6390 2.78365 0.00000 0.00000 
AFRZVJ5  FIERZ VJ     0 0        0.00000 0.00000 0.00000 0.00000 
AGJADR5  HPP GJADER   0 0        0.00000 0.00000 0.00000 0.00000 0.00000 -8.0000 5.00000 -10.000 
AGJIRE5  GJIROKASTE   0 0        18.6422 -1.3918 0.00000 0.00000 
AGJIRO5  GJIROKASTER  0 0        13.0109 0.00000 0.00000 0.00000 
AGJORI5  HPP Gjorice  0 2 115.00 0.00000 0.00000 -10.000 2.99354 0.00000 -12.000 5.00000 -10.000 
AGKUQ 5  GUR KUQ      0 0        1.44566 1.39182 0.00000 0.00000 
AGOLEM5  GOLEM        0 0        9.72456 5.56730 0.00000 0.00000 
AGSA  5  GSA          0 0        33.6287 1.39182 0.00000 0.00000 
AHIMAR5  HIMARE       0 0        2.89132 0.00000 0.00000 0.00000 
AIBE  5  IBE          0 0        4.33698 0.00000 0.00000 0.00000 
AKAFAR5  KAFARAJ      0 0        4.33698 1.39182 0.00000 0.00000 
AKAJAN5  KAJAN        0 0        0.00000 0.00000 0.00000 0.00000 
AKALIM5  KALIMASH     0 0        5.78265 2.78365 0.00000 0.00000 
AKASHA51 KASHAR 51    0 0        81.8491 6.95912 0.00000 0.00000 
AKAVAJ5  KAVAJ        0 0        26.8832 2.78365 0.00000 0.00000 
AKELCY5  KELCYR       0 0        2.89132 1.39182 0.00000 0.00000 
AKOLAC2  KOLAC        0 0        8.67397 4.17547 0.00000 0.00000 
AKOMAN1  HPP KOMAN    0 0        0.00000 0.00000 0.00000 0.00000 0.00000 -300.00 200.000 -320.00 
AKOMAN2  HPP KOMAN    0 2 225.00 0.00000 0.00000 -342.59 200.000 0.00000 -600.00 200.000 -320.00 
AKOMBI5  KOMBINAT     0 0        7.22830 0.00000 0.00000 0.00000 
AKOPLI2  KOPLIK       0 0        0.00000 1.00000 0.00000 0.00000 
AKORCE5  KORCE        0 0        15.9023 6.95912 0.00000 0.00000 
AKOSMC5  KOSMC        0 0        4.03173 0.00000 0.00000 0.00000 
AKRAHS5  KRAHES       0 0        1.44566 0.00000 0.00000 0.00000 
AKRUJE5  KRUJE        0 0        8.22138 0.00000 0.00000 0.00000 
AKUCOV5  KUCOVE       0 0        32.4052 8.35095 0.00000 0.00000 
AKUKES5  KUKES        0 0        7.22830 0.00000 0.00000 0.00000 
AKURBN5  KURBNESH     0 0        0.00000 0.00000 0.00000 0.00000 
ALAC1 5  LAC 1        0 0        11.9297 2.78365 0.00000 0.00000 
ALAC2 5  LAC 2        0 0        4.53442 1.39182 0.00000 0.00000 
ALAJTH5  LAJTHIZE     0 0        0.00000 0.00000 0.00000 0.00000 
ALALEZ5  LALEZ        0 0        1.44566 1.39182 0.00000 0.00000 
ALAPAJ5  HPP LAPAJ    0 2 115.00 0.00000 0.00000 -6.7940 0.87265 0.00000 -12.000 5.00000 -10.000 
ALENGA5  HPP LENGAR   0 2 115.00 0.00000 0.00000 -9.6459 -5.6671 0.00000 -12.000 5.00000 -10.000 
ALEZHA5  LEZHA        0 0        36.4997 11.1346 0.00000 0.00000 
ALIBRZ5  LIBRAZHD     0 2 115.00 12.2631 0.00000 -1.8791 -6.1823 0.00000 -16.000 5.00000 -10.000 
ALUMZI5  HPP Lumezi   0 2 115.00 0.00000 0.00000 -14.138 2.42664 0.00000 -16.000 5.00000 -10.000 
ALURA 5  HPP LURA     0 2 115.00 0.00000 0.00000 -5.0000 -44.060 0.00000 -16.000 5.00000 -44.060 
ALUSHN5  LUSHNJE      0 0        48.6205 -34.796 0.00000 0.00000 
AMALLA5  HPP MALLA    0 2 115.00 0.00000 0.00000 -5.2384 50.0612 0.00000 -11.000 50.0616 -10.000 
AMAMUR5  MAMURAS      0 0        4.33698 1.39182 0.00000 0.00000 
AMARIN5  MARINZ       0 0        27.7204 0.00000 0.00000 0.00000 
AMEMAL5  MEMALIAJ     0 0        1.44566 1.39182 0.00000 0.00000 
AMOGLI2  HPP MOGLICE  0 2 225.00 0.00000 0.00000 -158.99 -176.32 0.00000 -180.00 18.0000 -278.64 
AORIKU5  ORIKUM       0 0        0.00000 0.00000 0.00000 0.00000 
APERME5  PERMET       0 0        4.33698 0.00000 0.00000 0.00000 
APESHK5  PESHKOPI     0 0        5.78265 2.78365 0.00000 0.00000 
APESHQ2  HPP PESHQESH 0 2 225.00 0.00000 0.00000 -28.486 20.5194 0.00000 -34.000 20.5194 -17.000 
APOGRD5  POGRADEC     0 0        21.5029 5.56730 0.00000 0.00000 
APRELL5  HPP PRELL    0 2 115.00 0.00000 0.00000 -14.584 13.5801 0.00000 -70.000 13.6636 -10.000 
APRENJ5  PRENJAS      0 0        6.08557 0.00000 0.00000 0.00000 
APROMA5  PORTO ROMA   0 0        50.4649 2.78365 0.00000 0.00000 
AQENDE5  QENDER       0 0        59.0810 27.8365 0.00000 0.00000 
ARAPU45  HPP RAPUN 4  0 2 115.00 0.00000 0.00000 -1.8791 1.20867 0.00000 -8.0000 5.00000 -10.000 
ARENCI5  RENCI        0 0        2.89132 1.39182 0.00000 0.00000 
AREPSI5  REPSI        0 0        2.89132 1.39182 0.00000 0.00000 
ARRAZB5  RRAZHBULL2   0 0        0.00000 0.00000 0.00000 0.00000 
ARRAZH2  RRASHBULL    0 0        0.00000 0.00000 0.00000 0.00000 
ARRAZH5  RRAZHBULL1   0 0        0.00000 0.00000 0.00000 0.00000 
ARUBIK5  RUBIK        0 0        2.89132 1.39182 0.00000 0.00000 
ASARAN5  SARANDE      0 0        14.4566 6.95912 0.00000 0.00000 
ASELEN5  SELENIC      0 0        5.78265 1.39182 0.00000 0.00000 
ASELIT5  SELIT        0 0        137.839 40.3629 0.00000 0.00000 
ASETA 5  HPP Seta     0 2 115.00 0.00000 0.00000 -18.315 7.33094 0.00000 -70.000 7.46995 -10.000 
ASHARR2  SHARRE       0 0        18.7936 6.95912 0.00000 0.00000 
ASHARR5  SHARRE       0 0        0.00000 0.00000 0.00000 0.00000 
ASHKD15  SHKODER 1    0 0        47.2479 36.1579 0.00000 0.00000 
ASHKD25  SHKODER 2    0 0        37.5565 12.5264 0.00000 0.00000 
ASHKP15  HPP SHK 1    0 2 115.00 0.00000 0.00000 -10.000 -72.108 0.00000 -12.000 5.00000 -73.547 
ASHKP25  HPP SHK 2    0 0        0.00000 0.00000 0.00000 0.00000 0.00000 -12.000 5.00000 -10.000 
ASHKZT5  SHKOZET      0 0        76.6975 13.9182 0.00000 0.00000 
ASHPEL5  HPP Shpella  0 2 115.00 0.00000 0.00000 -3.0827 1.52996 0.00000 -11.000 5.00000 -10.000 
ASHUPE5  SHUPENZ      0 0        1.44566 0.00000 0.00000 0.00000 
ASHUTR5  SHUTRI       0 0        2.89132 0.00000 0.00000 0.00000 
ASLAB25  HPP Slabinj2 0 2 115.00 0.00000 0.00000 -7.4726 4.62086 0.00000 -16.000 5.00000 -10.000 
ASLABI5  HPP SLABINJ  0 2 115.00 0.00000 0.00000 -9.8120 5.00000 0.00000 -11.000 5.00000 -10.000 
ASUC  5  SUC          0 0        0.00000 0.00000 0.00000 0.00000 
ASUKTH5  SUKT         0 0        28.7389 6.95912 0.00000 0.00000 
ATEPEL5  TEPELENE     0 0        0.00000 0.00000 0.00000 0.00000 
ATERNV5  HPP TERNOV   0 0        0.00000 0.00000 0.00000 0.00000 0.00000 -11.000 5.00000 -10.000 
ATIRA21  TIRANA2 400  0 0        0.00000 0.00000 0.00000 0.00000 
ATIRA22  TIRANA2 220  0 0        0.00000 0.00000 0.00000 0.00000 
ATIRA25  TIRANA       0 0        0.00000 0.00000 0.00000 0.00000 
ATIRAN2  TIRANA 220   0 0        103.012 34.7956 0.00000 0.00000 
ATIRAN5  TIRANA       0 0        0.00000 0.00000 0.00000 0.00000 
ATITAN2  TITAN        0 0        8.67397 4.17547 0.00000 0.00000 
ATUNEL5  TUNEL        0 0        1.44566 0.00000 0.00000 0.00000 
AULEZ 5  HPP ULEZ     0 2 115.00 0.00000 0.00000 -18.515 -23.379 0.00000 -25.000 5.00000 -24.201 
AUTRAK5  UZINA TRA    0 0        56.7544 9.74277 0.00000 0.00000 
AUZNOV5  UZNOVE       0 0        4.33698 1.39182 0.00000 0.00000 
AVDEJA2  HPP V DEJES  0 2 225.00 0.00000 0.00000 -180.00 41.1625 0.00000 -250.00 41.1625 -150.00 
AVDEJS5  VDEJES 5     0 0        0.00000 0.00000 0.00000 0.00000 
AVDVJT5  VDEJES VJTR  0 0        4.33698 1.39182 0.00000 0.00000 
AVLOR25  VLORA 2      0 0        22.8354 0.00000 0.00000 0.00000 
AVLORE5  VLORE        0 0        0.00000 0.00000 0.00000 0.00000 
AVLOTP2  TPPVLORA     0 0        0.00000 0.00000 0.00000 0.00000 0.00000 -110.00 18.0000 -67.000 
AVOJNI5  VOJNIK       0 0        1.44566 1.39182 0.00000 0.00000 
AZEMLA1  ZEMLAK       0 0        0.00000 120.000 0.00000 0.00000 
AZEMLA5  ZEMBLAK      0 0        0.00000 0.00000 0.00000 0.00000 
##ZBE
BAALNO31 AALNO150     0 0        0.00000 0.00000 0.00000 0.00000 
BAALNO32 AALNO150     0 0        35.5242 8.13361 0.00000 0.00000 
BAALST31 AALST150     0 0        54.2971 18.4537 0.00000 0.00000 
BAALTR31 AALTR150     0 0        21.6133 2.41838 0.00000 0.00000 
BAALTR32 AALTR150     0 0        21.1852 4.75472 0.00000 0.00000 
BACHEN11 ACHEN380     0 0        54.4494 -1.0507 0.00000 0.00000 
BACHEN12 ACHEN380     0 0        0.00000 0.00000 0.00000 0.00000 
BACHES11 ACHES380     0 0        2.72627 -1.8226 0.00000 0.00000 
BAIRLI31 AIRLI150     0 0        17.2084 13.4834 0.00000 0.00000 
BALEGR11 ALEGR380     0 0        0.00000 0.00000 0.00000 0.00000 0.00000 -1000.0 500.000 -500.00 
BALZ  31 ALZ 150      0 0        9.04538 6.17588 0.00000 0.00000 
BALZ  32 ALZ 150      0 0        0.11176 0.99821 0.00000 0.00000 
BALZ  33 ALZ 150      0 0        16.3208 -1.3438 0.00000 0.00000 
BALZ  34 ALZ 150      0 0        29.9294 1.99672 -0.2000 -0.0200 0.00000 -4.6000 0.46000 -1.5180 
BAMERC31 AMERC150     0 0        0.00000 0.00000 0.00000 0.00000 
BAMERC3C AMERC150     0 0        0.00000 0.00000 0.00000 0.00000 
BAMERC3V AMERC 16     0 2 156.31 0.00000 0.00000 -285.79 -3.7112 -96.110 -285.79 66.4700 -156.60 
BAMERC3W AMERC 12     0 2 156.66 0.00000 0.00000 -160.22 -9.0904 
BAMOCO31 AMOCO150     0 0        65.4948 10.9933 -23.361 -2.3360 
BANDUM1R ANDUM380     0 0        0.00000 0.00000 0.00000 0.00000 
BANDUM30 ANDUM150     0 0        0.00000 0.00000 0.00000 0.00000 
BANDUM31 ANDUM150     0 0        0.00000 0.00000 0.00000 0.00000 
BANDUM32 ANDUM150     0 0        0.00000 0.00000 0.00000 0.00000 
BANDUM33 ANDUM150     0 0        0.00000 0.00000 0.00000 0.00000 
BANS  31 ANS 150      0 0        49.7036 -19.338 0.00000 0.00000 
BANS  32 ANS 150      0 0        4.35708 0.04351 0.00000 0.00000 
BANTOI31 ANTOI150     0 0        49.2364 12.4885 0.00000 0.00000 
BATOFI3A ATOFI150     0 0        8.23453 2.60395 0.00000 0.00000 
BATOFI3B ATOFI150     0 0        2.53035 1.24032 0.00000 0.00000 
BAUBAN11 AUBAN380     0 0        0.00000 0.00000 0.00000 0.00000 
BAUBAN21 AUBAN220     0 0        38.2328 153.782 0.00000 0.00000 
BAUBAN22 AUBAN220     0 0        0.19085 137.280 0.00000 0.00000 
BAUBAN23 AUBAN220     0 0        0.00000 0.00000 0.00000 0.00000 
BAUVEL32 AUVEL150     0 0        10.6631 -4.5483 0.00000 0.00000 
BAUVEL33 AUVEL150     0 0        17.2380 0.86816 0.00000 0.00000 
BAUVEL3R AUVEL150     0 0        17.0922 1.95334 0.00000 0.00000 
BAVERN31 AVERN150     0 2 156.67 9.13817 -1.6818 -5.0999 5.18903 0.00000 -32.000 6.58000 -27.000 
BAVERN32 AVERN150     0 0        0.13040 81.1656 0.00000 0.00000 
BAVERN3R AVERN150     0 0        0.10901 0.69999 0.00000 0.00000 
BAVERN3S AVERN150     0 0        0.10901 0.69999 0.00000 0.00000 
BAVLGM11 AVLGM380     0 0        0.00000 0.00000 0.00000 0.00000 
BAVLGM12 AVLGM380     0 0        0.00000 0.00000 0.00000 0.00000 
BAVLGM31 AVLGM150     0 0        0.00000 0.00000 0.00000 0.00000 
BAVLGM32 AVLGM150     0 0        0.00000 0.00000 0.00000 0.00000 
BAWIRS21 AWIRS220     0 0        71.0568 17.0151 0.00000 0.00000 
BAWIRS31 AWIRS150     0 0        0.00000 0.00000 0.00000 0.00000 
BAWIRS3W AWIRS 15     0 0        0.00000 0.00000 -74.160 -39.382                 5.41394 -71.960 
BBAISY31 BAISY150     0 0        77.5073 -36.995 0.00000 0.00000 
BBALEN31 BALEN150     0 0        0.00000 0.00000 0.00000 0.00000 
BBALEN32 BALE+150     0 0        0.00000 0.00000 0.00000 0.00000 
BBALEN3R BALEN150     0 0        0.00000 0.00000 0.00000 0.00000 
BBALEN3_ BALEN150     0 0        0.00000 0.00000 0.00000 0.00000 
BBASCO32 BASCO150     0 0        19.0615 1.70025 0.00000 0.00000 
BBASCO3R BASCO150     0 0        0.01533 0.03151 0.00000 0.00000 
BBASF 31 BASF 150     0 0        71.6395 30.4818 -14.150 -1.4150 
BBASF 32 BASF 150     0 0        57.9139 23.8614 0.00000 0.00000 
BBASF 34 BASF 150     0 0        68.5573 9.17749 0.00000 0.00000 
BBASF 3A BASF 150     0 0        61.4523 26.2965 0.00000 0.00000 
BBASF 3B BASF 150     0 0        76.3926 32.5963 0.00000 0.00000 
BBASF 3W BASF 21      0 2 156.00 0.00000 0.00000 -368.00 -9.4848 -230.00 -368.00 125.045 -241.16 
BBASF 3_ BASF 150     0 0        0.06531 0.48366 0.00000 0.00000 
BBASSW3R BASSW150     0 0        36.1518 34.6489 0.00000 0.00000 
BBASTO2R BASTO220     0 0        0.02130 0.09308 0.00000 0.00000 
BBATTI3R BATTI150     0 0        17.3860 0.61697 0.00000 0.00000 
BBAUDO31 BAUDO150     0 0        0.00000 0.00000 0.00000 0.00000 
BBAUDO32 BAUDO150     0 0        69.2418 -72.498 0.00000 0.00000 
BBAUDO3W BAUDO 24     0 2 152.35 0.00000 0.00000 -353.00 93.0879 -130.00 -353.00 107.668 -317.96 
BBAYMI3R BAYMI150     0 0        0.00000 0.00000 -3.2553 8.48872 
BBEERS3R BEERS150     0 0        83.8719 11.2415 0.00000 0.00000 
BBEERS3S BEERS150     0 0        0.00000 0.00000 0.00000 0.00000 
BBERIN31 BERIN150     0 0        75.8192 16.1108 0.00000 0.00000 
BBERIN32 BERIN150     0 0        0.00000 0.00000 0.00000 0.00000 
BBERNE21 BERNE220     0 0        0.23092 0.03394 0.00000 0.00000 
BBERST32 BERST150     0 0        9.37101 0.79879 0.00000 0.00000 
BBERST3R BERST150     0 0        9.35464 0.72260 0.00000 0.00000 
BBIFF+22 BIFF+220     0 0        0.00000 0.00000 0.00000 0.00000 
BBINCH31 BINCH150     0 0        11.8011 0.55920 0.00000 0.00000 
BBLANC31 BLANC150     0 0        9.55136 -1.7007 0.00000 0.00000 
BBLANC32 BLANC150     0 0        0.02670 0.07176 0.00000 0.00000 
BBLTOR31 BLTOR150     0 0        0.00000 0.00000 0.00000 0.00000 
BBLTOR32 BLTOR150     0 0        0.00000 0.00000 0.00000 0.00000 
BBOLAL32 BOLAL150     0 0        1.98137 -11.114 0.00000 0.00000 
BBOTCC32 BOTCC150     0 0        0.04983 0.37037 0.00000 0.00000 
BBOTCC3R BOTCC150     0 0        23.4495 -3.8458 0.00000 0.00000 
BBO_HF31 BO_HF150     0 0        3.01911 12.2731 0.00000 0.00000 
BBRAIN31 BRAIN150     0 0        25.2748 1.90151 0.00000 0.00000 
BBRESS31 BRESS150     0 0        0.02324 0.09622 0.00000 0.00000 
BBRESS32 BRESS150     0 0        20.9912 5.58366 0.00000 0.00000 
BBRUEG11 BRUEG 36     0 0        0.00000 0.00000 0.00000 0.00000 
BBRUEG12 BRUEG380     0 0        0.00000 0.00000 0.00000 0.00000 
BBRUEG1A BRUEG380     0 0        0.00000 0.00000 0.00000 0.00000 
BBRUEG1S              0 0        0.00000 0.00000 0.00000 0.00000 
BBRUEG31 BRUEG150     0 0        0.00000 0.00000 0.00000 0.00000 
BBRUEG32 BRUEG150     0 0        0.00000 0.00000 0.00000 0.00000 
BBRUEG3A BRUEG150     0 0        0.00000 0.00000 0.00000 0.00000 
BBRUEG3B BRUEG150     0 0        0.00000 0.00000 0.00000 0.00000 
BBRUGG31 BRUGG150     0 0        57.8508 82.2416 0.00000 0.00000 
BBRUGG32 BRUGG150     0 0        37.4922 6.10344 0.00000 0.00000 
BBRUME11 BRUME380     0 0        0.00000 0.00000 0.00000 0.00000 
BBRUME12 BRUME380     0 0        26.2626 -14.319 0.00000 0.00000 
BBRUME21 BRUME220     0 0        0.00000 0.00000 0.00000 0.00000 
BBRUMS2R BRUMS220     0 0        0.59380 -0.5966 0.00000 0.00000 
BBRUST3R BRUST150     0 0        55.3710 19.4498 0.00000 0.00000 
BBUGG+12 BUGG+380     0 0        0.00000 0.00000 0.00000 0.00000 
BBUGG+1R BUGG+380     0 0        0.00000 0.00000 0.00000 0.00000 
BBUIZI31 BUIZI150     0 0        43.7553 1.72681 0.00000 0.00000 
BBURCH31 BURCH150     0 0        0.00000 0.00000 0.00000 0.00000 
BBURCH32 BURCH150     0 0        18.2405 -2.7052 0.00000 0.00000 
BBVERW32 BVERW150     0 0        10.2812 -3.2336 0.00000 0.00000 
BBVERW3A BVERW150     0 0        13.2023 -1.4172 -0.6455 -1.9568 
BBVERW3R BVERW150     0 0        0.00000 0.00000 0.00000 0.00000 
BBVREN31 BVREN150     0 0        12.1561 1.27785 0.00000 0.00000 
BBVREN32 BVREN150     0 0        23.1106 3.30117 0.00000 0.00000 
BBWTON31 BWTON150     0 0        36.9338 12.7676 0.00000 0.00000 
BCAMOC31 CAMOC150     0 0        0.01612 0.00777 0.00000 0.00000 
BCARAL3R CARAL150     0 0        1.15279 1.19449 0.00000 0.00000 
BCBR3A32 CBR3A150     0 0        14.0494 4.17473 0.00000 0.00000 
BCBR3A33 CBR3A150     0 0        0.05310 0.33601 0.00000 0.00000 
BCFINF37 CFINF150     0 0        0.00000 0.00000 -43.752 -5.2197 
BCFINF38 CFINF150     0 0        0.00000 0.00000 -87.149 -4.7803 
BCHACO31 CHACO150     0 0        5.21248 -3.1447 0.00000 0.00000 
BCHAMP11 CHAMP380     0 0        60.7711 -13.360 0.00000 0.00000 
BCHAMP12 CHAMP380     0 0        59.0489 20.6116 0.00000 0.00000 
BCHARL3R CHARL150     0 0        0.01698 0.00497 0.00000 0.00000 
BCHARL3S CHARL150     0 0        20.4461 3.60285 0.00000 0.00000 
BCHER+3R CHER+150     0 0        0.00000 0.00000 0.00000 0.00000 
BCHERA34 CHERA150     0 0        2.97145 0.70677 0.00000 0.00000 
BCHERA3R CHERA150     0 0        12.3345 0.61104 0.00000 0.00000 
BCHIEV31 CHIEV150     0 0        8.71092 2.37140 0.00000 0.00000 
BCHIEV32 CHIEV150     0 0        0.00000 0.00000 0.00000 0.00000 
BCKNIP31 CKNIP150     0 0        0.00000 0.00000 0.00000 0.00000 
BCKNIP3W CKNIP 16     0 2 155.80 0.00000 0.00000 -258.40 16.1509 -251.10 -300.00 81.9975 -313.25 
BCLABE31 CLABE150     0 0        10.3634 2.84729 0.00000 0.00000 
BCLABE3R CLABE150     0 0        0.00000 0.00000 0.00000 0.00000 
BCLABE3S CLABE150     0 0        0.00000 0.00000 0.00000 0.00000 
BCLANG31 CLANG150     0 0        45.8710 8.04698 0.00000 0.00000 
BCLANG32 CLANG150     0 0        46.1399 8.12217 0.00000 0.00000 
BCLANG33 CLANG150     0 0        11.2962 1.63653 0.00000 0.00000 
BCMARE31 CMARE150     0 0        0.01691 0.01485 0.00000 0.00000 
BCMARE3W CMARE 20     0 2 150.83 0.01381 0.09992 -391.00 69.9300 -173.00 -391.00 94.9229 -217.62 
BCOO  11 COO 380      0 0        0.00000 0.00000 0.00000 0.00000 
BCOO  12 COO 380      0 0        0.00000 0.00000 0.00000 0.00000 
BCOO  1R COO 20       0 0        0.00000 0.00000 0.00000 0.00000 145.000 -145.00 39.9800 -97.260 
BCOO  1S COO 20       0 0        0.00000 0.00000 0.00000 0.00000 145.000 -145.00 39.9800 -97.260 
BCOO  1T COO 20       0 0        0.00000 0.00000 0.00000 0.00000 145.000 -145.00 39.9800 -97.260 
BCOO  1U COO 20       0 0        0.00000 0.00000 0.00000 0.00000 200.000 -215.00 65.3700 -136.03 
BCOO  1V COO 20       0 0        0.00000 0.00000 0.00000 0.00000 200.000 -215.00 65.3700 -136.03 
BCOO  1W COO 20       0 0        0.00000 0.00000 0.00000 0.00000 200.000 -215.00 65.3700 -136.03 
BCORBA3R CORBA150     0 0        17.2287 -6.1852 0.00000 0.00000 
BCOURC11 COURC380     0 0        0.00000 0.00000 0.00000 0.00000 
BCOURC12 COURC380     0 0        0.00000 0.00000 0.00000 0.00000 
BCOURC3R COURC150     0 0        0.00000 0.00000 0.00000 0.00000 
BCQUIN31 CQUIN150     0 0        24.3052 5.18775 0.00000 0.00000 
BCZWIJ31 CZWIJ150     0 0        53.8563 28.8567 0.00000 0.00000 
BCZWIJ32 CZWIJ150     0 0        0.00000 0.00000 0.00000 0.00000 
BCZWIJ3U CZWIJ 11     0 0        0.00000 0.00000 -31.790 -2.6210 -15.570 -37.630 0.76338 -27.356 
BCZWIJ3V CZWIJ 11     0 0        0.00000 0.00000 -31.790 -2.7677 -15.570 -37.630 -0.5291 -33.239 
BCZWIJ3W CZWIJ 11     0 0        0.00000 0.00000 -34.410 -3.9026 -16.850 -40.730 0.45295 -27.715 
BDAMPL31 DAMPL150     0 0        15.0903 1.56970 0.00000 0.00000 
BDAMPL32 DAMPL150     0 0        15.2474 1.58246 0.00000 0.00000 
BDAMPR31 DAMPR150     0 0        0.00000 0.00000 0.00000 0.00000 
BDAMPR32 DAMPR150     0 0        0.00000 0.00000 0.00000 0.00000 
BDAMPR3R DAMPR150     0 0        0.00000 0.00000 0.00000 0.00000 
BDAMPS35 DAMPS150     0 0        2.96954 -0.7250 0.00000 0.00000 
BDAMPS36 DAMPS150     0 0        2.96921 -0.7249 0.00000 0.00000 
BDEIN+32 DEIN+150     0 0        0.00000 0.00000 0.00000 0.00000 
BDEIN+3R DEIN+150     0 0        0.00000 0.00000 0.00000 0.00000 
BDEINZ31 DEINZ150     0 0        23.2274 5.06730 0.00000 0.00000 
BDEINZ32 DEINZ150     0 0        16.3813 4.60590 0.00000 0.00000 
BDESG+3R DESG+150     0 0        0.00000 0.00000 0.00000 0.00000 
BDESGM31 DESGM150     0 0        19.1846 3.38713 0.00000 0.00000 
BDHANI3A DHANI150     0 0        27.9362 4.73090 0.00000 0.00000 
BDHANI3B DHANI150     0 0        0.00000 0.00000 0.00000 0.00000 
BDHANI3C DHANI150     0 0        45.4979 1.14459 0.00000 0.00000 
BDIEST3R DIEST150     0 0        64.3263 -8.8569 0.00000 0.00000 
BDILB+31 DILB+150     0 0        0.00000 0.00000 0.00000 0.00000 
BDILBE3R DILBE150     0 0        27.6252 -5.4985 0.00000 0.00000 
BDOEL 11 DOEL 380     0 0        0.00000 0.00000 0.00000 0.00000 
BDOEL 12 DOEL 380     0 0        0.00000 0.00000 0.00000 0.00000 
BDOEL 1A DOEL 380     0 0        0.00000 0.00000 0.00000 0.00000 
BDOEL 1B DOEL 380     0 0        0.00000 0.00000 0.00000 0.00000 
BDOEL 1T DOEL 18      0 2 408.23 0.00000 0.00000 -453.10 -70.898 -453.10 -453.10 52.8527 -259.78 
BDOEL 1U DOEL 18      0 2 408.11 0.00000 0.00000 -452.60 -69.242 -452.60 -452.60 52.9004 -259.73 
BDOEL 1V DOEL 24      0 2 408.26 0.00000 0.00000 -1024.0 -123.38 -1024.0 -1024.0 110.350 -560.17 
BDOEL 1W DOEL 24      0 2 404.74 0.00000 0.00000 -1041.0 -121.84 -1041.0 -1041.0 110.770 -575.00 
BDOEL 31 DOEL 150     0 0        0.00000 0.00000 0.00000 0.00000 
BDOEL 32 DOEL 150     0 0        2.09504 0.40977 0.00000 0.00000 
BDOTT+3R DOTT+150     0 0        0.00000 0.00000 0.00000 0.00000 
BDOTTI31 DOTTI150     0 0        8.85220 3.33919 0.00000 0.00000 
BDROGE11 DROGE380     0 0        0.00000 0.00000 0.00000 0.00000 
BDROGE31 DROGE150     0 0        79.1510 38.0484 0.00000 0.00000 
BDROGE33 DROGE150     0 0        57.1571 -12.034 0.00000 0.00000 
BDROGE3U DROGE 15     0 2 151.68 0.00000 0.00000 -112.72 27.1853 -61.950 -154.14 27.1853 -150.75 
BDROGE3V DROGE 15     0 2 151.65 0.00000 0.00000 -112.72 26.8890 -61.950 -154.14 26.8890 -147.99 
BDROGE3W DROGE 15     0 2 155.84 0.00000 0.00000 -120.24 4.36489 -66.080 -164.41 26.5717 -136.77 
BDRONG3R DRONG150     0 0        42.1541 4.92922 0.00000 0.00000 
BEEKLN11 EEKLN380     0 0        0.00000 0.00000 0.00000 0.00000 
BEEKLN31 EEKLN150     0 0        10.2911 -0.8125 0.00000 0.00000 
BEEKLN32 EEKLN150     0 0        0.13444 77.2495 -2.9458 -0.3679 
BEEKLO32 EEKLO150     0 0        20.9342 1.56001 0.00000 0.00000 
BEEKLO3R EEKLO150     0 0        21.1067 1.55903 0.00000 0.00000 
BEISDE32 EISDE150     0 0        37.6589 -7.8369 0.00000 0.00000 
BEISDE3A EISDE150     0 0        48.9668 18.4528 0.00000 0.00000 
BEIZE+3R EIZE+150     0 0        0.00000 0.00000 0.00000 0.00000 
BEIZER31 EIZER150     0 0        19.4086 1.01657 0.00000 0.00000 
BEKERE31 EKERE150     0 0        33.6680 -3.0462 0.00000 0.00000 
BESCH 2C ESCH 220     0 0        51.8626 19.5592 0.00000 0.00000 
BESCH 2E ESCH 220     0 0        0.00000 0.00000 0.00000 0.00000 
BESSO 31 ESSO 150     0 0        25.5761 16.2260 0.00000 0.00000 
BESSO 32 ESSO 150     0 0        34.1216 17.9353 0.00000 0.00000 
BESSO 3K ESSO 150     0 0        0.00000 0.00000 0.00000 0.00000 
BESSO 3W ESSO 15      0 0        0.00000 0.00000 -80.000 -4.6192 -80.000 -80.000 5.37955 -69.869 
BESSO+32 ESSO+150     0 0        0.00000 0.00000 0.00000 0.00000 
BESSO+3R ESSO+150     0 0        0.00000 0.00000 0.00000 0.00000 
BESSOC31 ESSOC150     0 0        17.2383 3.91039 0.00000 0.00000 
BESSOC32 ESSOC150     0 0        20.4151 6.43991 0.00000 0.00000 
BEUPEN32 EUPEN150     0 0        27.1565 7.85582 0.00000 0.00000 
BEUPEN3R EUPEN150     0 0        29.3617 -14.062 0.00000 0.00000 
BFAFER31 FAFER150     0 0        8.80217 7.90763 0.00000 0.00000 
BFAFER3R FAFER150     0 0        58.0950 2.39452 0.00000 0.00000 
BFARCI32 FARCI150     0 0        0.01545 0.03177 0.00000 0.00000 
BFARCI3R FARCI150     0 0        15.8409 1.19084 0.00000 0.00000 
BFELUY3R FELUY150     0 0        6.93735 1.35653 0.00000 0.00000 
BFIBER3R FIBER150     0 0        13.1376 4.51532 0.00000 0.00000 
BFLEUR31 FLEUR150     0 0        3.56079 -0.7801 0.00000 0.00000 
BFLEUR32 FLEUR150     0 0        15.7416 1.23140 0.00000 0.00000 
BFLORA32 FLORA150     0 0        42.2806 3.46015 0.00000 0.00000 
BFLORA3R FLORA150     0 0        42.2809 3.47351 0.00000 0.00000 
BFOC  3R FOC 150      0 0        31.6592 14.9352 0.00000 0.00000 
BFOC+ 3R FOC+ 150     0 0        0.00000 0.00000 0.00000 0.00000 
BFONT+3  FONT+150     0 0        0.00000 0.00000 0.00000 0.00000 
BFONTA32 FONTA150     0 0        10.1028 0.11553 0.00000 0.00000 
BFONTA33 FONTA150     0 0        0.01586 0.03260 0.00000 0.00000 
BFONTA3R FONT+150     0 0        0.00000 0.00000 0.00000 0.00000 
BFORES3A FORES150     0 0        25.5100 2.84789 0.00000 0.00000 
BFORES3B FORES150     0 0        0.00000 0.00000 0.00000 0.00000 
BGALGE11 GALGE380     0 0        0.00000 0.00000 0.00000 0.00000 
BGASTH3A GASTH150     0 0        63.5190 34.2532 0.00000 0.00000 
BGAURA32 GAURA150     0 0        0.04650 0.20136 0.00000 0.00000 
BGAURA3R GAURA150     0 0        23.3890 10.2506 0.00000 0.00000 
BGENPM31 GENPM150     0 0        8.31494 7.37626 0.00000 0.00000 
BGEZEL11 GEZEL380     0 0        0.20777 129.956 0.00000 0.00000 
BGEZEL12 GEZEL380     0 0        0.20777 129.956 0.00000 0.00000 
BGILLY37 GILLY150     0 0        20.2944 2.52679 0.00000 0.00000 
BGODSH31 GODSH150     0 0        83.1503 12.8089 0.00000 0.00000 
BGOSS+32 GOSS+150     0 0        0.00000 0.00000 0.00000 0.00000 
BGOSS+3R GOSS+150     0 0        0.00000 0.00000 0.00000 0.00000 
BGOSSE31 GOSSE150     0 0        0.03932 0.08383 0.00000 0.00000 
BGOSSE32 GOSSE150     0 0        13.5435 3.25108 0.00000 0.00000 
BGOUY 11 GOUY 380     0 0        0.00000 0.00000 0.00000 0.00000 
BGOUY 12 GOUY 380     0 0        0.00000 0.00000 0.00000 0.00000 
BGOUY 31 GOUY 150     0 0        15.2710 2.09040 0.00000 0.00000 
BGOUY 32 GOUY 150     0 0        67.1995 -13.582 0.00000 0.00000 
BGRAMM1A GRAMM380     0 0        0.00000 0.00000 0.00000 0.00000 
BGRAMM1B GRAMM380     0 0        0.00000 0.00000 0.00000 0.00000 
BGRAMM1C GRAMM380     0 0        0.00000 0.00000 0.00000 0.00000 
BGRAMM1D GRAMM380     0 0        0.00000 0.00000 0.00000 0.00000 
BGRAMM3A GRAMM150     0 0        0.00000 0.00000 0.00000 0.00000 
BGRAMM3B GRAMM150     0 0        0.00000 0.00000 0.00000 0.00000 
BGRIMB32 GRIMB150     0 0        0.02588 0.05626 0.00000 0.00000 
BGRIMB3R GRIMB150     0 0        22.5462 1.44744 0.00000 0.00000 
BHAM  32 HAM 150      0 0        11.4391 2.86850 -1.3227 -1.1659 
BHAM  3R HAM 150      0 0        31.6561 12.5513 0.00000 0.00000 
BHARE+32 HARE+150     0 0        0.00000 0.00000 0.00000 0.00000 
BHARE+3R HARE+150     0 0        0.00000 0.00000 0.00000 0.00000 
BHAREL31 HAREL150     0 0        29.8318 -0.3775 0.00000 0.00000 
BHAREL32 HAREL150     0 0        28.3985 -0.6237 0.00000 0.00000 
BHARMI3R HARMI150     0 0        22.5215 30.0662 0.00000 0.00000 
BHARWI3R HARWI150     0 0        0.00000 0.00000 0.00000 0.00000 
BHARYD31 HARYD150     0 0        21.6344 2.40138 0.00000 0.00000 
BHAVE731 HAVE7150     0 0        11.0887 0.82666 0.00000 0.00000 
BHAVE732 HAVE7150     0 0        13.1180 1.52317 0.00000 0.00000 
BHBRUG31 HBRUG150     0 0        0.00000 0.00000 0.00000 0.00000 
BHBRUG32 HBRUG150     0 0        0.00000 0.00000 0.00000 0.00000 
BHBRUG33 HBRUG150     0 0        0.00000 0.00000 0.00000 0.00000 
BHBRUG3U HBRUG 15     0 0        0.00000 0.00000 0.00000 0.00000 -62.560 -136.50 53.6900 -99.120 
BHBRUG3V HBRUG 15     0 0        0.00000 0.00000 0.00000 0.00000 -62.280 -135.89 53.6900 -98.030 
BHBRUG3W HBRUG 15     0 0        0.00000 0.00000 0.00000 0.00000 -66.540 -145.19 53.6900 -88.290 
BHDPE 31 HDPE 150     0 0        8.23269 2.54477 0.00000 0.00000 
BHDPE 32 HDPE 150     0 0        3.99151 0.82300 0.00000 0.00000 
BHEIM+32 HEIM+150     0 0        0.00000 0.00000 0.00000 0.00000 
BHEIMO31 HEIMO150     0 0        0.00000 0.00000 0.00000 0.00000 
BHEIMO3R HEIMO150     0 0        0.00000 0.00000 0.00000 0.00000 
BHEIMO3S HEIMO150     0 0        19.5211 1.63796 0.00000 0.00000 
BHEINS23 HEINS220     0 0        19.4879 -14.903 0.00000 0.00000 
BHEIST31 HEIST150     0 0        17.5956 0.52651 0.00000 0.00000 
BHEIST32 HEIST150     0 0        12.8234 0.36849 0.00000 0.00000 
BHELIA3R HELIA150     0 0        54.5788 21.9533 0.00000 0.00000 
BHERCU32 HERCU150     0 0        19.0720 7.40091 0.00000 0.00000 
BHERCU3R HERCU150     0 0        0.00000 0.00000 0.00000 0.00000 
BHERDE32 HERDE150     0 0        0.02486 0.02274 0.00000 0.00000 
BHERDE3R HERDE150     0 0        10.9634 1.64813 0.00000 0.00000 
BHEULE31 HEULE150     0 0        23.3043 4.05278 0.00000 0.00000 
BHEZE 31 HEZE 150     0 0        77.1724 6.07097 0.00000 0.00000 
BHOEN+32 HOEN+150     0 0        0.00000 0.00000 0.00000 0.00000 
BHOEN+3R HOEN+150     0 0        0.00000 0.00000 0.00000 0.00000 
BHOOGS3R HOOGS150     0 0        22.1623 1.34021 -3.9057 -10.756 
BHORTA11 HORTA380     0 0        0.19541 129.084 0.00000 0.00000 
BHORTA12 HORTA380     0 0        0.00000 0.00000 0.00000 0.00000 
BHOUF+2R HOUF+220     0 0        0.00000 0.00000 0.00000 0.00000 
BHOUFF21 HOUFF220     0 0        0.00000 0.00000 -7.2389 0.15492 
BHOUT+3R HOUT+150     0 0        0.00000 0.00000 0.00000 0.00000 
BHOUTH31 HOUTH150     0 0        78.9543 21.8865 0.00000 0.00000 
BHSART3R HSART150     0 0        10.0318 -0.4634 0.00000 0.00000 
BIEPER31 IEPER150     0 0        19.6646 -3.0280 -1.6040 -0.1607 
BIEPNO31 IEPNO150     0 0        18.1617 7.23734 0.00000 0.00000 
BIEPNO3R IEPNO150     0 0        13.1661 3.61759 0.00000 0.00000 
BIXELL30 IXELL150     0 0        0.00000 0.00000 0.00000 0.00000 
BIXELL31 IXELL150     0 0        0.00000 0.00000 0.00000 0.00000 
BIXELL32 IXELL150     0 0        0.00000 0.00000 0.00000 0.00000 
BIXELL33 IXELL150     0 0        0.00000 0.00000 0.00000 0.00000 
BIXELL34 IXELL150     0 0        0.00000 0.00000 0.00000 0.00000 
BIXELL35 IXELL150     0 0        0.00000 0.00000 0.00000 0.00000 
BIXELL36 IXELL150     0 0        0.00000 0.00000 0.00000 0.00000 
BIXELL37 IXELL150     0 0        0.00000 0.00000 0.00000 0.00000 
BIXELL38 IXELL150     0 0        0.00000 0.00000 0.00000 0.00000 
BIXELL39 IXELL150     0 0        43.9153 -0.2506 0.00000 0.00000 
BIXELL3A IXELL150     0 0        0.00000 0.00000 0.00000 0.00000 
BIXELL3B IXELL150     0 0        27.2317 -8.2791 0.00000 0.00000 
BIZGEM12 IZGEM380     0 0        0.00000 0.00000 0.00000 0.00000 
BIZGEM1R IZGEM380     0 0        0.00000 0.00000 0.00000 0.00000 
BIZGEM31 IZGEM150     0 0        19.4824 -76.206 0.00000 0.00000 
BIZGEM32 IZGEM150     0 0        10.4328 3.02008 0.00000 0.00000 
BJEMAP3R JEMAP150     0 0        22.5364 4.08736 0.00000 0.00000 
BJUPIL21 JUPIL220     0 0        0.00000 0.00000 0.00000 0.00000 
BJUPIL22 JUPIL220     0 0        0.00000 0.00000 0.00000 0.00000 
BJUPIL32 JUPIL150     0 0        0.00000 0.00000 0.00000 0.00000 
BJUPIL3R JUPIL150     0 0        0.00000 0.00000 0.00000 0.00000 
BKALLO31 KALLO150     0 0        0.07819 0.61827 0.00000 0.00000 
BKALLO32 KALLO150     0 0        0.00000 0.00000 0.00000 0.00000 
BKEER+3R KEER+150     0 0        0.00000 0.00000 0.00000 0.00000 
BKENNE32 KENNE150     0 0        45.9353 4.88200 0.00000 0.00000 
BKENNE3R KENNE150     0 0        47.1238 3.85020 0.00000 0.00000 
BKETEN31 KETEN150     0 0        27.0429 3.25583 -20.047 6.73025 
BKETEN32 KETEN150     0 0        0.00000 0.00000 -30.493 8.90159 
BKOBB+3R KOBB+150     0 0        0.00000 0.00000 0.00000 0.00000 
BKOBBE31 KOBBE150     0 0        17.8635 1.53981 0.00000 0.00000 
BKOKSI31 KOKSI150     0 0        56.1579 7.74629 0.00000 0.00000 
BKOKSI32 KOKSI150     0 0        0.00000 0.00000 0.00000 0.00000 
BKOKSI3A KOKSI150     0 0        32.1723 3.49053 0.00000 0.00000 
BKRUSS31 KRUSS150     0 2 156.55 80.3897 20.5406 -21.376 0.92156 0.00000 -25.000 49.3300 -49.330 
BKRUSS32 KRUSS150     0 0        70.3160 20.2677 0.00000 0.00000 
BKUUR+3R KUUR+150     0 0        0.00000 0.00000 0.00000 0.00000 
BKUURN31 KUURN150     0 0        11.2376 2.29451 0.00000 0.00000 
BLACRO30 LACRO150     0 0        0.00000 0.00000 0.00000 0.00000 
BLACRO31 LACRO150     0 0        0.00000 0.00000 0.00000 0.00000 
BLACRO32 LACRO150     0 0        0.00000 0.00000 0.00000 0.00000 
BLACRO33 LACRO150     0 0        0.00000 0.00000 0.00000 0.00000 
BLACRO34 LACRO150     0 0        0.00000 0.00000 0.00000 0.00000 
BLACRO35 LACRO150     0 0        0.00000 0.00000 0.00000 0.00000 
BLACRO36 LACRO150     0 0        0.00000 0.00000 0.00000 0.00000 
BLACRO37 LACRO150     0 0        0.00000 0.00000 0.00000 0.00000 
BLACRO38 LACRO150     0 0        0.00000 0.00000 0.00000 0.00000 
BLACRO39 LACRO150     0 0        22.4118 2.80730 0.00000 0.00000 
BLACRO3A LACRO150     0 0        0.01534 0.03153 0.00000 0.00000 
BLACRO3B LACRO150     0 0        2.63488 -0.1649 0.00000 0.00000 
BLANAK31 LANAK150     0 0        59.5718 24.2753 -0.8160 -0.0816 0.00000 -1.2000 1.26000 -1.2600 
BLANAK3W LANAK 10     0 2 147.17 22.2893 2.13522 -44.500 -5.9997 -20.000 -44.500 0.72000 -24.000 
BLANDN3R LANDN150     0 0        10.5267 0.41520 0.00000 0.00000 
BLANGE31 LANGE150     0 0        0.00000 0.00000 0.00000 0.00000 
BLANGE32 LANGE150     0 0        0.00000 0.00000 0.00000 0.00000 
BLANLO31 LANLO150     0 0        37.4309 10.5516 0.00000 0.00000 
BLANLO32 LANLO150     0 0        49.6969 7.31292 0.00000 0.00000 
BLATO+2R LATO+220     0 0        0.00000 0.00000 0.00000 0.00000 
BLATOU21 LATOU220     0 0        7.65366 4.54882 0.00000 0.00000 
BLATRO21 LATRO220     0 0        18.6386 2.87655 0.00000 0.00000 
BLATRO22 LATRO220     0 0        18.6386 2.87655 0.00000 0.00000 
BLEES+32 LEES+150     0 0        0.00000 0.00000 0.00000 0.00000 
BLEES+3R LEES+150     0 0        0.00000 0.00000 0.00000 0.00000 
BLEVAL21 LEVAL220     0 0        0.00000 0.00000 0.00000 0.00000 
BLEVAL22 LEVAL220     0 0        0.00000 0.00000 0.00000 0.00000 
BLEVAL2U LEVAL 15     0 0        0.00000 0.00000 -156.47 -15.647 -84.250 -156.54 5.74391 -112.16 
BLEVAL2V LEVAL 15     0 0        0.00000 0.00000 -156.47 -15.647 -84.250 -156.54 5.65954 -112.29 
BLEVAL2W LEVAL 15     0 0        0.00000 0.00000 -177.34 -17.734 -95.480 -177.41 3.82775 -114.30 
BLIEF+1R LIEF+380     0 0        0.00000 0.00000 0.00000 0.00000 
BLIEF+1S LIEF+380     0 0        0.00000 0.00000 0.00000 0.00000 
BLIER 3R LIER 150     0 0        29.1441 9.76772 0.00000 0.00000 
BLIER 3T LIER 150     0 0        52.2684 -3.1712 0.00000 0.00000 
BLIGNE32 LIGNE150     0 0        16.0428 5.07683 0.00000 0.00000 
BLIGNE3R LIGNE150     0 0        4.22289 2.40215 0.00000 0.00000 
BLILLO11 LILLO380     0 0        0.00000 0.00000 0.00000 0.00000 
BLILLO12 LILLO380     0 0        0.00000 0.00000 0.00000 0.00000 
BLILLO31 LILLO150     0 0        0.06874 0.45468 -3.6504 6.39533 
BLILLO32 LILLO150     0 0        0.00000 0.00000 0.00000 0.00000 
BLILLO33 LILLO150     0 0        0.00000 0.00000 0.00000 0.00000 
BLINT 31 LINT 150     0 0        0.00000 0.00000 0.00000 0.00000 
BLINT 32 LINT 150     0 0        0.00000 0.00000 0.00000 0.00000 
BLINTT12 LINT 380     0 0        0.00000 0.00000 0.00000 0.00000 
BLINTT1R LINT 380     0 0        0.00000 0.00000 0.00000 0.00000 
BLIXHE11 LIXHE380     0 0        0.00000 0.00000 0.00000 0.00000 
BLIXHE12 LIXHE380     0 0        0.00000 0.00000 0.00000 0.00000 
BLIXHE27 LIXHE220     0 0        34.0630 6.12917 0.00000 0.00000 
BLIXHE31 LIXHE150     0 0        0.00000 0.00000 0.00000 0.00000 
BLIXHE32 LIXHE150     0 0        29.2331 3.43142 0.00000 0.00000 
BLOKER31 LOKER150     0 0        39.4512 3.82187 -4.3574 -2.4401 
BLOMME31 LOMME150     0 0        45.8090 1.66435 0.00000 0.00000 
BMACHE31 MACHE150     0 0        65.0126 -7.9149 0.00000 0.00000 
BMACHE32 MACHE150     0 0        24.4322 2.35722 0.00000 0.00000 
BMAERL11 MAERL380     0 0        0.00000 0.00000 0.00000 0.00000 
BMAERL12 MAERL380     0 0        0.00000 0.00000 0.00000 0.00000 
BMALDR32 MALDR150     0 0        38.8921 45.4687 0.00000 0.00000 
BMALDR3R MALDR150     0 0        31.8740 -48.325 0.00000 0.00000 
BMALEC31 MALEC150     0 0        7.95407 2.26092 0.00000 0.00000 
BMALEC32 MALEC150     0 0        7.86027 2.23653 0.00000 0.00000 
BMALLE31 MALLE150     0 0        8.52061 -0.7447 0.00000 0.00000 
BMALLE32 MALLE150     0 0        11.5832 -0.1387 0.00000 0.00000 
BMARC+2R MARC+220     0 0        0.00000 0.00000 0.00000 0.00000 
BMARCO21 MARCO220     0 0        20.8694 -4.5729 0.00000 0.00000 
BMARQ+3R MARQ+150     0 0        0.00000 0.00000 0.00000 0.00000 
BMARQU31 MARQU150     0 0        26.8476 3.60781 0.00000 0.00000 
BMASSE11 MASSE380     0 0        0.00000 0.00000 0.00000 0.00000 
BMASSE31 MASSE150     0 0        0.00000 0.00000 0.00000 0.00000 
BMASSE32 MASSE150     0 0        0.00000 0.00000 0.00000 0.00000 
BMCHIN31 MCHIN150     0 0        4.63556 5.62761 0.00000 0.00000 
BMECHL31 MECHL150     0 0        51.1882 37.4314 0.00000 0.00000 
BMECHL32 MECHL150     0 0        60.9370 -12.406 0.00000 0.00000 
BMECHL3R MECHL150     0 0        0.00000 0.00000 0.00000 0.00000 
BMEERH11 MEERH380     0 0        0.00000 0.00000 0.00000 0.00000 
BMEERH12 MEERH380     0 0        0.00000 0.00000 0.00000 0.00000 
BMEERH31 MEERH150     0 0        17.1465 0.95657 0.00000 0.00000 
BMEERH32 MEERH150     0 0        0.00000 0.00000 0.00000 0.00000 
BMEKI+1R MEKI+380     0 0        0.00000 0.00000 0.00000 0.00000 
BMERCA11 MERCA380     0 0        0.00000 0.00000 0.00000 0.00000 
BMERCA12 MERCA380     0 0        0.00000 0.00000 0.00000 0.00000 
BMERCA1A MERCA380     0 0        0.00000 0.00000 0.00000 0.00000 
BMERCA1B MERCA380     0 0        0.00000 0.00000 0.00000 0.00000 
BMERCA31 MERCA150     0 0        0.00000 0.00000 0.00000 0.00000 
BMERCA32 MERCA150     0 0        0.00000 0.00000 0.00000 0.00000 
BMERCH32 MERCH150     0 0        14.9143 -2.4078 0.00000 0.00000 
BMERCH3R MERCH150     0 0        25.0102 -15.193 0.00000 0.00000 
BMERKS31 MERKS150     0 0        76.2197 -6.8922 0.00000 0.00000 
BMERKS32 MERKS150     0 0        40.8252 17.6258 0.00000 0.00000 
BMEWST31 MEWST150     0 0        0.00000 0.00000 0.00000 0.00000 
BMEWST32 MEWST150     0 0        19.4159 0.44528 0.00000 0.00000 
BMHIN+3R MHIN+150     0 0        0.00000 0.00000 0.00000 0.00000 
BMIDI 32 MIDI 150     0 0        16.8830 2.27720 0.00000 0.00000 
BMOEN+32 MOEN+150     0 0        0.00000 0.00000 0.00000 0.00000 
BMOEN+3R MOEN+150     0 0        0.00000 0.00000 0.00000 0.00000 
BMOL  31 MOL 150      0 0        39.8777 -67.821 0.00000 0.00000 
BMOL  32 MOL 150      0 0        46.9681 -0.0201 0.00000 0.00000 
BMOLEN3A MOLEN150     0 0        26.7932 0.50316 0.00000 0.00000 
BMOLEN3B MOLEN150     0 0        48.2372 -2.3802 0.00000 0.00000 
BMOLEN3C MOLEN150     0 0        0.00000 0.00000 0.00000 0.00000 
BMONCE2R MONCE220     0 0        0.00000 0.00000 0.00000 0.00000 
BMONCE31 MONCE150     0 0        23.1594 4.44995 0.00000 0.00000 
BMONCE33 MONCE150     0 0        15.9211 -12.632 0.00000 0.00000 
BMONTI31 MONTI150     0 0        29.6087 4.73073 0.00000 0.00000 
BMORTS31 MORTS150     0 0        29.4968 -2.3971 0.00000 0.00000 
BMORTS32 MORTS150     0 0        0.00000 0.00000 0.00000 0.00000 
BMOUSC30 MOUSC 10     0 0        25.7037 9.88663 -25.704 -9.8866 0.00000 -25.704 18.9500 -18.950 
BMOUSC31 MOUSC150     0 0        41.2722 -68.001 0.00000 0.00000 
BMOUSC32 MOUSC150     0 0        0.00000 0.00000 0.00000 0.00000 
BMOUSC33 MOUSC150     0 0        0.00000 0.00000 0.00000 0.00000 
BMZLR+32 MZLR+150     0 0        0.00000 0.00000 0.00000 0.00000 
BMZLR+3R MZLR+150     0 0        0.00000 0.00000 0.00000 0.00000 
BNDOKS31 NDOKS150     0 0        8.37615 -10.564 0.00000 0.00000 
BNDOKS32 NDOKS150     0 0        0.07071 0.45394 0.00000 0.00000 
BNEUVI31 NEUVI150     0 0        15.4055 9.63469 0.00000 0.00000 
BNIEUW31 NIEUW150     0 0        25.7308 6.77712 0.00000 0.00000 
BNIEUW32 NIEUW150     0 0        23.0259 -6.0318 0.00000 0.00000 
BNINO+3R NINO+150     0 0        0.00000 0.00000 0.00000 0.00000 
BNINOV31 NINOV150     0 0        77.3170 24.7288 0.00000 0.00000 
BNINOV32 NINOV150     0 0        16.1978 0.69549 0.00000 0.00000 
BNIVEL31 NIVEL150     0 0        0.03765 0.68396 0.00000 0.00000 
BNIVEL32 NIVEL150     0 0        13.4862 1.46333 0.00000 0.00000 
BNORDL31 NORDL150     0 0        0.00000 0.00000 0.00000 0.00000 
BOBOU+3R OBOU+150     0 0        0.00000 0.00000 0.00000 0.00000 
BOBOUR31 OBOUR150     0 0        30.7448 9.76261 0.00000 0.00000 
BOBOUR32 OBOUR150     0 0        1.52691 0.76168 0.00000 0.00000 
BOELEG32 OELEG150     0 0        9.12994 -0.0917 0.00000 0.00000 
BOELEG3R OELEG150     0 0        8.61713 -0.1238 0.00000 0.00000 
BOISQU31 OISQU150     0 0        83.5761 18.8911 0.00000 0.00000 
BOOSTR31 OOSTR150     0 0        17.6703 6.09654 0.00000 0.00000 
BOS1ST21 OS1ST220     0 0        0.00000 0.00000 0.00000 0.00000 
BOS1ST22 OS1ST220     0 0        0.00000 0.00000 0.00000 0.00000 
BOS2ST21 OS2ST220     0 2 227.97 0.00000 0.00000 -88.527 75.0000 -40.000 -307.00 75.0000 -75.000 
BOUDNA31 OUDNA150     0 0        20.6828 4.97584 0.00000 0.00000 
BOUDNA32 OUDNA150     0 0        18.7864 0.88156 0.00000 0.00000 
BOVERP31 OVERP150     0 0        0.00000 -53.141 0.00000 0.00000 
BPACHE31 PACHE150     0 0        0.00000 0.00000 0.00000 0.00000 
BPACHE32 PACHE150     0 0        7.36261 0.95777 0.00000 0.00000 
BPEKK+32 PEKK+150     0 0        0.00000 0.00000 0.00000 0.00000 
BPEKK+3R PEKK+150     0 0        0.00000 0.00000 0.00000 0.00000 
BPEMA+32 PEMA+150     0 0        0.00000 0.00000 0.00000 0.00000 
BPEMA+3R PEMA+150     0 0        0.00000 0.00000 0.00000 0.00000 
BPEMA231 PEMA2150     0 0        10.1086 51.0491 0.00000 0.00000 
BPEMA232 PEMA2150     0 0        10.1086 46.0491 0.00000 0.00000 
BPEMAR31 PEMAR150     0 0        29.9943 1.43373 0.00000 0.00000 
BPEMAR3B PEMAR150     0 0        42.6541 2.38168 0.00000 0.00000 
BPETRO31 PETRO150     0 0        31.8336 2.91209 0.00000 0.00000 
BPITEM31 PITEM150     0 0        26.1195 7.08856 0.00000 0.00000 
BPITEM32 PITEM150     0 0        12.7677 3.71213 0.00000 0.00000 
BPLATE31 PLATE150     0 0        0.12676 0.81324 0.00000 0.00000 
BPOEDE32 POEDE150     0 0        10.1834 -2.1577 0.00000 0.00000 
BPOEDE3R POEDE150     0 0        10.1440 -0.6899 0.00000 0.00000 
BPONT+3R PONT+150     0 0        0.00000 0.00000 0.00000 0.00000 
BPOPSA30 POPSA150     0 0        14.5627 -1.9119 0.00000 0.00000 
BPORTF31 PORTF150     0 0        34.8382 -6.5316 0.00000 0.00000 
BPORTP31 PORTP150     0 0        23.1078 -30.641 0.00000 0.00000 
BPORTP32 PORTP150     0 0        26.9922 -8.1027 0.00000 0.00000 
BPP3 131 PP3 150      0 0        8.23269 2.54477 0.00000 0.00000 
BPP3 132 PP3 150      0 0        2.52585 1.20222 0.00000 0.00000 
BPRECH31 PRECH150     0 0        39.6912 4.58263 0.00000 0.00000 
BPRECH32 PRECH150     0 0        30.6140 5.15884 0.00000 0.00000 
BPUTTE31 PUTTE150     0 0        0.02546 0.13986 0.00000 0.00000 
BPUTTE32 PUTTE150     0 0        11.6768 -0.1908 0.00000 0.00000 
BQDEME3R QDEME150     0 0        20.3412 13.1229 0.00000 0.00000 
BQUAR+32 QUAR+150     0 0        0.00000 0.00000 0.00000 0.00000 
BQUAR+3R QUAR+150     0 0        0.00000 0.00000 0.00000 0.00000 
BRELE+3R RELE+150     0 0        0.00000 0.00000 0.00000 0.00000 
BRELEG3R RELEG150     0 0        30.5043 13.5927 0.00000 0.00000 
BRHODE31 RHODE150     0 0        23.4997 22.1745 0.00000 0.00000 
BRIJKE31 RIJKE150     0 0        1.15809 -0.1608 0.00000 0.00000 
BRIJKE32 RIJKE150     0 0        0.00000 0.00000 0.00000 0.00000 
BRIMIE1R RIMIE380     0 0        0.00000 0.00000 0.00000 0.00000 
BRIMIE21 RIMIE220     0 0        0.00000 0.00000 0.00000 0.00000 
BRIMIE22 RIMIE220     0 0        67.6202 12.1515 0.00000 0.00000 
BRIMIE28 RIMIE220     0 0        0.00000 0.00000 0.00000 0.00000 
BRINGV31 RINGV150     0 0        0.00000 0.00000 0.00000 0.00000 
BRINGV3W RINGV 24     0 2 156.54 0.00000 0.00000 -375.00 0.69663 -145.70 -380.30 0.69663 -206.21 
BRODE+1R RODE+380     0 0        0.00000 0.00000 0.00000 0.00000 
BRODEN11 RODEN380     0 0        0.00000 0.00000 0.00000 0.00000 
BRODEN31 RODEN150     0 0        0.00000 0.00000 -0.0547 -0.0055 0.00000 -3.4000 0.16300 -0.5379 
BRODEN33 RODEN150     0 0        0.00000 0.00000 0.00000 0.00000 
BRODEN3W RODEN 20     0 2 156.33 0.00000 0.00000 -205.00 49.0012 -80.000 -205.00 51.0573 -161.76 
BROEVG31 ROEVG150     0 0        0.07628 0.66984 0.00000 0.00000 
BROMSE21 ROMSE220     0 0        74.0915 -18.287 0.00000 0.00000 
BROMSS21 ROMSS220     0 0        3.27325 -2.0652 0.00000 0.00000 
BROMSS22 ROMSS220     0 0        0.04273 0.22520 0.00000 0.00000 
BROUVR21 ROUVR220     0 0        14.9127 -2.6708 0.00000 0.00000 
BRUIEN32 RUIEN150     0 0        28.1805 -155.28 0.00000 0.00000 
BRUIEN33 RUIEN150     0 0        0.00000 0.00000 0.00000 0.00000 
BRUMBE32 RUMBE150     0 0        21.0569 3.68680 0.00000 0.00000 
BRUMBE3R RUMBE150     0 0        21.0626 3.68523 0.00000 0.00000 
BSART 21 SART 220     0 0        36.8533 1.88075 0.00000 0.00000 
BSART+21 SART+220     0 0        0.00000 0.00000 0.00000 0.00000 
BSCARB31 SCARB150     0 0        62.9568 7.69399 0.00000 0.00000 
BSCARB32 SCARB150     0 0        24.1429 15.2022 0.00000 0.00000 
BSCHD+32 SCHD+150     0 0        0.00000 0.00000 0.00000 0.00000 
BSCHD+3R SCHD+150     0 0        0.00000 0.00000 0.00000 0.00000 
BSCHED31 SCHED150     0 0        37.4032 55.2652 0.00000 0.00000 
BSCHED32 SCHED150     0 0        27.1809 -9.6195 0.00000 0.00000 
BSCHEL31 SCHEL150     0 0        32.7494 -45.892 0.00000 0.00000 0.00000 -0.5000 0.53000 -0.5300 
BSCHEL3_ SCHEL150     0 0        0.00000 0.00000 0.00000 0.00000 
BSCHIF23 SCHIF220     0 0        0.00000 0.00000 0.00000 0.00000 
BSCHIF24 SCHIF220     0 0        0.00000 0.00000 0.00000 0.00000 
BSDALE31 SDALE150     0 0        22.7649 7.21957 0.00000 0.00000 
BSEILL31 SEILL150     0 0        23.8837 7.98552 0.00000 0.00000 
BSENO+2R SENO+220     0 0        0.00000 0.00000 0.00000 0.00000 
BSERAI21 SERAI220     0 0        80.9703 30.5849 0.00000 0.00000 
BSERAI22 SERAI220     0 0        14.7413 5.96183 0.00000 0.00000 
BSIDAL31 SIDAL150     0 0        30.7740 3.14875 0.00000 0.00000 
BSIDMA31 SIDMA150     0 0        0.17532 0.76620 0.00000 0.00000 
BSIDMA32 SIDMA150     0 0        240.552 22.4335 0.00000 0.00000 
BSIKE+32 SIKE+150     0 0        0.00000 0.00000 0.00000 0.00000 
BSIKE+3R SIKE+150     0 0        0.00000 0.00000 0.00000 0.00000 
BSIKEL32 SIKEL150     0 0        7.35403 3.41129 0.00000 0.00000 
BSIKEL3R SIKEL150     0 0        5.00260 3.40148 0.00000 0.00000 
BSJOB 31 SJOB 150     0 0        38.8471 -8.8206 0.00000 0.00000 
BSLAAN31 SLAAN150     0 0        29.6562 5.59462 0.00000 0.00000 
BSLAAN32 SLAAN150     0 0        19.8421 3.82085 0.00000 0.00000 
BSLAAN33 SLAAN150     0 0        0.00000 0.00000 0.00000 0.00000 
BSLAAN34 SLAAN150     0 0        0.00000 0.00000 0.00000 0.00000 
BSLYKE31 SLYKE150     0 0        33.8322 -4.7254 0.00000 0.00000 
BSLYKE32 SLYKE150     0 0        0.13175 75.7044 0.00000 0.00000 
BSMARD21 SMARD220     0 0        6.88181 -0.6550 0.00000 0.00000 
BSMARS23 SMARS220     0 0        0.02223 0.14273 0.00000 0.00000 
BSMARS24 SMARS220     0 0        3.51883 -1.3120 0.00000 0.00000 
BSOLAN30 SOLAN150     0 0        187.501 37.5941 0.00000 0.00000 
BSOLAN31 SOLAN150     0 0        0.09212 0.59151 0.00000 0.00000 
BSOLV231 SOLV2150     0 0        0.00000 0.00000 -7.0248 4.53732 
BSOLV33R SOLV3150     0 0        0.00000 0.00000 -10.093 2.04505 
BSTAD+32 STAD+150     0 0        0.00000 0.00000 0.00000 0.00000 
BSTAD+3R STAD+150     0 0        0.00000 0.00000 0.00000 0.00000 
BSTALE31 STALE150     0 0        24.6361 2.84403 0.00000 0.00000 
BSTALE32 STALE150     0 0        7.12160 -1.2083 0.00000 0.00000 
BSTAM+1R STAM+380     0 0        0.00000 0.00000 0.00000 0.00000 
BSTBAV31 STBAV150     0 0        76.6748 37.2945 0.00000 0.00000 
BSTEVN11 STEVN380     0 0        0.00000 0.00000 0.00000 0.00000 
BSTEVN12 STEVN380     0 0        0.00000 0.00000 0.00000 0.00000 
BSTEVN1A STEVN380     0 0        0.00000 0.00000 0.00000 0.00000 
BSTEVN1B STEVN380     0 0        0.20763 129.869 0.00000 0.00000 
BSTEVN21 STEVN220     0 0        0.15315 130.196 0.00000 0.00000 
BSTEVN22 STEVN220     0 0        0.15999 130.196 0.00000 0.00000 
BSTEVN2A STEVN220     0 0        0.15898 130.196 0.00000 0.00000 
BSTEVN2B STEVN220     0 0        0.15526 130.196 0.00000 0.00000 
BSTEVN3R STEVN150     0 0        0.00000 0.00000 0.00000 0.00000 
BSTEVN3S STEVN150     0 0        0.00000 0.00000 0.00000 0.00000 
BSTGIL32 STGIL150     0 0        4.04796 10.5572 0.00000 0.00000 
BSTGIL3R STGIL150     0 0        18.0765 -0.0593 0.00000 0.00000 
BSTNIK31 STNIK150     0 0        21.4183 3.27365 0.00000 0.00000 
BSTPAU31 STPAU150     0 0        0.00000 0.00000 0.00000 0.00000 
BSTPAU32 STPAU150     0 0        15.1508 0.31304 0.00000 0.00000 
BTERGN11 TERGN380     0 0        0.00000 0.00000 0.00000 0.00000 
BTERGN31 TERGN150     0 0        9.78910 -1.1696 0.00000 0.00000 
BTERGN32 TERGN150     0 0        0.00000 0.00000 0.00000 0.00000 
BTERGN3R TERGN150     0 0        0.00000 0.00000 0.00000 0.00000 
BTERL+32 TERL+150     0 0        0.00000 0.00000 0.00000 0.00000 
BTERL+3R TERL+150     0 0        0.00000 0.00000 0.00000 0.00000 
BTERTR3R TERTR150     0 0        25.7143 5.14614 0.00000 0.00000 
BTESSE31 TESSE150     0 0        128.814 78.0371 -11.784 -1.1784 0.00000 -14.500 15.2700 -15.270 
BTESSE32 TESSE150     0 0        0.12086 1.12592 0.00000 0.00000 
BTESSE3W TESSE 19     0 0        0.00000 0.00000 -423.00 -51.112 -240.00 -423.00 56.0111 -171.56 
BTHORN31 THORN150     0 0        0.00066 66.4340 -38.699 3.04131 -30.000 -147.60 18.4361 -62.764 
BTHORN32 THORN150     0 0        0.00067 66.6446 -49.891 3.92088 -49.891 -70.900 21.2669 -76.633 
BTHUIL37 THUIL150     0 0        5.05304 -0.1244 0.00000 0.00000 
BTHYCH3R THYCH150     0 0        10.5006 -12.557 0.00000 0.00000 
BTIBIS11 TIBIS380     0 0        0.00000 0.00000 0.00000 0.00000 
BTIBIS31 TIBIS150     0 0        0.00000 0.00000 0.00000 0.00000 
BTIELT31 TIELT150     0 0        35.0157 9.18203 0.00000 0.00000 
BTIEN+32 TIEN+150     0 0        0.00000 0.00000 0.00000 0.00000 
BTIEN+3R TIEN+150     0 0        0.00000 0.00000 0.00000 0.00000 
BTIENE32 TIENE150     0 0        71.3779 26.3848 0.00000 0.00000 
BTIENE3R TIENE150     0 0        24.2389 13.3498 0.00000 0.00000 
BTIHA+3R TIHA+150     0 0        0.00000 0.00000 0.00000 0.00000 
BTIHA11N TIHA1380     0 0        0.00000 0.00000 0.00000 0.00000 
BTIHA11S TIHA1380     0 0        0.00000 0.00000 0.00000 0.00000 
BTIHA11V TIHA1 18     0 2 410.32 0.00000 0.00000 -481.90 -27.164 -481.90 -481.90 52.3900 -279.34 
BTIHA11W TIHA1 18     0 2 410.37 0.00000 0.00000 -486.40 -28.071 -486.40 -486.40 52.3900 -279.34 
BTIHA211 TIHA2380     0 0        0.00000 0.00000 0.00000 0.00000 
BTIHA21W TIHA2 24     0 2 409.84 0.00000 0.00000 -1011.0 -27.167 -1011.0 -1011.0 103.306 -568.90 
BTIHA311 TIHA3 24     0 2 408.78 0.00000 0.00000 -1002.7 -24.498 -1002.7 -1002.7 103.305 -587.75 
BTIHA31W TIHA3380     0 0        0.00000 0.00000 0.00000 0.00000 
BTIHAN31 TIHAN150     0 0        0.34285 0.70564 0.00000 0.00000 
BTIHAN32 TIHAN150     0 0        0.00000 0.00000 0.00000 0.00000 
BTRIVI31 TRIVI150     0 0        0.00000 -81.643 0.00000 0.00000 
BTRIVI32 TRIVI150     0 0        0.00000 0.00000 0.00000 0.00000 
BUMBAL32 UMBAL150     0 0        0.03685 0.36071 0.00000 0.00000 
BUMBAL33 UMBAL150     0 0        50.1228 25.4661 0.00000 0.00000 
BUMBAL3R UMBAL150     0 0        72.3861 42.6970 0.00000 0.00000 
BUMHOB31 UMHOB150     0 0        23.0643 3.01073 0.00000 0.00000 
BUMHOB32 UMHOB150     0 0        0.02809 0.02255 0.00000 0.00000 
BUMOVE32 UMOVE150     0 0        8.21506 1.76100 0.00000 0.00000 
BUMOVE3R UMOVE150     0 0        0.00000 0.00000 0.00000 0.00000 
BVALE+3R VALE+150     0 0        0.00000 0.00000 0.00000 0.00000 
BVANYK15 VANYK380     0 0        0.00000 0.00000 0.00000 0.00000 
BVANYK16 VANYK380     0 0        0.00000 0.00000 0.00000 0.00000 
BVANYK17 VANYK380     0 0        0.00000 0.00000 0.00000 0.00000 
BVANYK18 VANYK380     0 0        0.00000 0.00000 0.00000 0.00000 
BVERBR30 VERBR 15     0 0        0.00000 0.00000 0.00000 0.00000 0.00000 -121.00 15.0000 -105.00 
BVERBR32 VERBR150     0 0        0.00000 0.00000 0.00000 0.00000 
BVERBR3A VERBR150     0 0        0.00000 0.00000 0.00000 0.00000 
BVERBR3B VERBR150     0 0        0.00000 0.00000 0.00000 0.00000 
BVERBR3C VERBR150     0 0        0.06406 -0.2560 0.00000 0.00000 
BVERBR3W VERBR 15     0 0        0.00000 0.00000 0.00000 0.00000 -100.00 -255.00 27.1900 -137.96 
BVERBT11 VERBR380     0 0        0.00000 0.00000 0.00000 0.00000 
BVERBT12 VERBR380     0 0        0.00000 0.00000 0.00000 0.00000 
BVHAIN31 VHAIN150     0 0        0.00000 0.00000 0.00000 0.00000 
BVHAIN33 VHAIN150     0 0        13.0292 76.1272 0.00000 0.00000 
BVHAIN34 VHAIN150     0 0        0.00000 0.00000 0.00000 0.00000 
BVHAIN3Z VHAIN150     0 0        0.00000 0.00000 0.00000 0.00000 
BVIEU+32 VIEU+150     0 0        0.00000 0.00000 0.00000 0.00000 
BVIEU+3R VIEU+150     0 0        0.00000 0.00000 0.00000 0.00000 
BVILLE21 VILLE220     0 0        18.9681 -8.9320 0.00000 0.00000 
BVILLE22 VILLE220     0 0        21.6847 -16.335 0.00000 0.00000 
BWALGO32 WALGO150     0 0        0.00000 0.00000 0.00000 0.00000 
BWALGO3R WALGO150     0 0        27.6278 8.93838 0.00000 0.00000 
BWATER3R WATER150     0 0        15.0099 1.48556 0.00000 0.00000 
BWATT+32 WATT+150     0 0        0.00000 0.00000 0.00000 0.00000 
BWATT+3R WATT+150     0 0        0.00000 0.00000 0.00000 0.00000 
BWESPL31 WESPL150     0 0        10.0938 1.07475 0.00000 0.00000 
...